@<TRIPOS>MOLECULE
LIG
   58    64     1     0     0
SMALL
rc


@<TRIPOS>ATOM
      1 C          -1.5460   -0.0270   -0.0360 cp        1 LIG      0.034866
      2 C1         -1.0710   -1.3620    0.0410 ca        1 LIG      0.027005
      3 C2          0.3900   -1.3430    0.2840 c2        1 LIG     -0.046396
      4 C3          0.7490    0.0890    0.3800 ca        1 LIG      0.027005
      5 C4         -0.4240    0.8730    0.2320 cq        1 LIG      0.034866
      6 C5         -2.8730    0.2460   -0.3620 ca        1 LIG     -0.183419
      7 C6         -3.7370   -0.8160   -0.6370 ca        1 LIG     -0.149616
      8 C7         -3.2660   -2.1340   -0.6120 ca        1 LIG     -0.171695
      9 C8         -1.9360   -2.4110   -0.2890 ca        1 LIG     -0.121147
     10 H          -3.2290    1.2710   -0.4180 ha        1 LIG      0.144905
     11 H1         -4.7740   -0.6180   -0.8910 ha        1 LIG      0.141271
     12 H2         -3.9400   -2.9510   -0.8540 ha        1 LIG      0.138728
     13 H3         -1.5860   -3.4380   -0.3110 ha        1 LIG      0.121146
     14 C9         -0.3900    2.2560    0.4040 ca        1 LIG     -0.183419
     15 C10         1.9390    0.7080    0.7690 ca        1 LIG     -0.121147
     16 C11         0.8180    2.8650    0.7480 ca        1 LIG     -0.149616
     17 C12         1.9690    2.0930    0.9400 ca        1 LIG     -0.171695
     18 H4          2.8340    0.1220    0.9460 ha        1 LIG      0.121146
     19 H5          2.8990    2.5750    1.2250 ha        1 LIG      0.138728
     20 H6         -1.2930    2.8500    0.2950 ha        1 LIG      0.144905
     21 H7          0.8610    3.9420    0.8860 ha        1 LIG      0.141271
     22 C13         1.2100   -2.4350    0.4310 c2        1 LIG      0.010529
     23 C14         0.7780   -3.7590    1.0930 c3        1 LIG      0.035070
     24 C15         2.6380   -2.5800    0.0760 ca        1 LIG     -0.056014
     25 C16         2.1230   -4.3220    1.6400 c3        1 LIG     -0.010470
     26 C17         3.1650   -3.6950    0.7620 ca        1 LIG     -0.004734
     27 H8          2.1570   -5.4170    1.6280 hc        1 LIG      0.039131
     28 H9          2.2430   -4.0110    2.6870 hc        1 LIG      0.039131
     29 C18         4.4680   -4.1300    0.5490 ca        1 LIG     -0.249008
     30 C19         5.2510   -3.4850   -0.3990 ca        1 LIG     -0.137672
     31 C20         3.4110   -1.9370   -0.9340 cp        1 LIG     -0.029329
     32 C21         4.7180   -2.4310   -1.1540 ca        1 LIG      0.174243
     33 H10         4.8630   -4.9810    1.0960 ha        1 LIG      0.168514
     34 H11         6.2610   -3.8100   -0.6220 ha        1 LIG      0.161974
     35 H12         0.4180   -4.4580    0.3210 hc        1 LIG      0.051045
     36 C22        -0.2550   -3.6650    2.2230 c3        1 LIG     -0.154600
     37 H13         0.0690   -2.9340    2.9710 hc        1 LIG      0.040494
     38 H14        -0.3420   -4.6380    2.7180 hc        1 LIG      0.040494
     39 H15        -1.2480   -3.3720    1.8840 hc        1 LIG      0.040494
     40 O           5.5340   -1.9600   -2.1400 oh        1 LIG     -0.520010
     41 H16         5.0900   -1.2450   -2.6190 ho        1 LIG      0.337840
     42 C23         2.8710   -0.9260   -1.8960 cp        1 LIG      0.022496
     43 C24         3.4900    0.3610   -2.0820 ca        1 LIG      0.210206
     44 C25         1.7970   -1.2720   -2.7010 ca        1 LIG     -0.122779
     45 C26         1.2860   -0.3940   -3.6790 ca        1 LIG     -0.192089
     46 C27         1.8660    0.8380   -3.8750 ca        1 LIG     -0.215978
     47 C28         2.9760    1.2440   -3.0920 ca        1 LIG      0.071901
     48 C29         4.5950    0.8110   -1.3010 ca        1 LIG     -0.157237
     49 C30         5.1660    2.0440   -1.5150 ca        1 LIG     -0.174397
     50 C31         4.6630    2.9050   -2.5190 ca        1 LIG     -0.144724
     51 C32         3.5900    2.5110   -3.2840 ca        1 LIG     -0.206712
     52 H17         1.3370   -2.2460   -2.5720 ha        1 LIG      0.124062
     53 H18         0.4390   -0.7040   -4.2830 ha        1 LIG      0.162881
     54 H19         1.4840    1.5170   -4.6330 ha        1 LIG      0.161236
     55 H20         4.9800    0.1670   -0.5180 ha        1 LIG      0.122815
     56 H21         6.0070    2.3610   -0.9060 ha        1 LIG      0.147630
     57 H22         5.1230    3.8750   -2.6800 ha        1 LIG      0.147871
     58 H23         3.1910    3.1680   -4.0520 ha        1 LIG      0.148003
@<TRIPOS>BOND
     1    1    2 1   
     2    1    5 1   
     3    1    6 1   
     4    2    3 1   
     5    2    9 1   
     6    3    4 1   
     7    3   22 1   
     8    4    5 1   
     9    4   15 1   
    10    5   14 1   
    11    6    7 1   
    12    6   10 1   
    13    7    8 1   
    14    7   11 1   
    15    8    9 1   
    16    8   12 1   
    17    9   13 1   
    18   14   16 1   
    19   14   20 1   
    20   15   17 1   
    21   15   18 1   
    22   16   17 1   
    23   16   21 1   
    24   17   19 1   
    25   22   23 1   
    26   22   24 1   
    27   23   25 1   
    28   23   35 1   
    29   23   36 1   
    30   24   26 1   
    31   24   31 1   
    32   25   26 1   
    33   25   27 1   
    34   25   28 1   
    35   26   29 1   
    36   29   30 1   
    37   29   33 1   
    38   30   32 1   
    39   30   34 1   
    40   31   32 1   
    41   31   42 1   
    42   32   40 1   
    43   36   37 1   
    44   36   38 1   
    45   36   39 1   
    46   40   41 1   
    47   42   43 1   
    48   42   44 1   
    49   43   47 1   
    50   43   48 1   
    51   44   45 1   
    52   44   52 1   
    53   45   46 1   
    54   45   53 1   
    55   46   47 1   
    56   46   54 1   
    57   47   51 1   
    58   48   49 1   
    59   48   55 1   
    60   49   50 1   
    61   49   56 1   
    62   50   51 1   
    63   50   57 1   
    64   51   58 1   
@<TRIPOS>SUBSTRUCTURE
     1 LIG         1 TEMP              0 ****  ****    0 ROOT
