@<TRIPOS>MOLECULE
LIG
   47    52     1     0     0
SMALL
rc


@<TRIPOS>ATOM
      1 C          -1.6390   -0.2920    0.2210 cp        1 LIG      0.038981
      2 C1         -1.2090   -1.6430    0.1520 ca        1 LIG      0.028416
      3 C2          0.2500   -1.7020    0.3960 c2        1 LIG     -0.076325
      4 C3          0.6630   -0.2960    0.6280 ca        1 LIG      0.028416
      5 C4         -0.4840    0.5370    0.5610 cq        1 LIG      0.038981
      6 C5         -2.9590    0.0580   -0.0570 ca        1 LIG     -0.181624
      7 C6         -3.8620   -0.9380   -0.4320 ca        1 LIG     -0.157923
      8 C7         -3.4360   -2.2660   -0.5540 ca        1 LIG     -0.173795
      9 C8         -2.1140   -2.6210   -0.2780 ca        1 LIG     -0.142102
     10 H          -3.2800    1.0950   -0.0010 ha        1 LIG      0.144590
     11 H1         -4.8940   -0.6790   -0.6510 ha        1 LIG      0.144120
     12 H2         -4.1390   -3.0290   -0.8750 ha        1 LIG      0.143205
     13 H3         -1.8010   -3.6500   -0.4150 ha        1 LIG      0.145637
     14 C9         -0.4000    1.9020    0.8380 ca        1 LIG     -0.181624
     15 C10         1.8830    0.2570    1.0330 ca        1 LIG     -0.142102
     16 C11         0.8330    2.4460    1.1980 ca        1 LIG     -0.157923
     17 C12         1.9610    1.6240    1.3040 ca        1 LIG     -0.173795
     18 H4          2.7660   -0.3610    1.1390 ha        1 LIG      0.145637
     19 H5          2.9130    2.0520    1.6050 ha        1 LIG      0.143205
     20 H6         -1.2850    2.5310    0.7880 ha        1 LIG      0.144590
     21 H7          0.9150    3.5070    1.4130 ha        1 LIG      0.144120
     22 C13         1.0280   -2.8370    0.4620 c2        1 LIG     -0.031892
     23 C14         0.5370   -4.2050    0.9810 c3        1 LIG      0.070776
     24 C15         2.4630   -2.9790    0.1760 ca        1 LIG     -0.012162
     25 C16         1.8490   -4.8900    1.4680 c3        1 LIG      0.039020
     26 C17         2.9460   -4.1500    0.7620 ca        1 LIG      0.030304
     27 H8          1.8690   -5.9660    1.2630 hc        1 LIG      0.020657
     28 H9          1.9390   -4.7760    2.5580 hc        1 LIG      0.020657
     29 C18         4.2930   -4.5410    0.6570 ca        1 LIG     -0.239078
     30 C19         5.1620   -3.7690   -0.0790 ca        1 LIG     -0.177621
     31 C20         3.3220   -2.2320   -0.7080 ca        1 LIG      0.033723
     32 C21         4.7010   -2.6290   -0.7950 ca        1 LIG      0.087930
     33 H10         4.6390   -5.4430    1.1550 ha        1 LIG      0.156665
     34 H11         6.2100   -4.0440   -0.1620 ha        1 LIG      0.159280
     35 C22         5.5830   -1.9050   -1.6400 ca        1 LIG     -0.169343
     36 C23         2.8810   -1.1830   -1.5560 ca        1 LIG     -0.153344
     37 C24         3.7590   -0.5180   -2.3870 ca        1 LIG     -0.120024
     38 C25         5.1280   -0.8620   -2.4140 ca        1 LIG     -0.173868
     39 H12         1.8350   -0.9110   -1.5570 ha        1 LIG      0.136376
     40 H13         3.3890    0.2760   -3.0290 ha        1 LIG      0.140937
     41 H14         6.6270   -2.2060   -1.6780 ha        1 LIG      0.133780
     42 H15         5.8120   -0.3210   -3.0620 ha        1 LIG      0.149180
     43 H16         0.1440   -4.7970    0.1400 hc        1 LIG      0.018212
     44 C26        -0.4970   -4.1780    2.1150 c3        1 LIG     -0.111340
     45 H17        -0.1340   -3.5590    2.9430 hc        1 LIG      0.029497
     46 H18        -0.6470   -5.1940    2.4960 hc        1 LIG      0.029497
     47 H19        -1.4670   -3.7880    1.8130 hc        1 LIG      0.029497
@<TRIPOS>BOND
     1    1    2 1   
     2    1    5 1   
     3    1    6 1   
     4    2    3 1   
     5    2    9 1   
     6    3    4 1   
     7    3   22 1   
     8    4    5 1   
     9    4   15 1   
    10    5   14 1   
    11    6    7 1   
    12    6   10 1   
    13    7    8 1   
    14    7   11 1   
    15    8    9 1   
    16    8   12 1   
    17    9   13 1   
    18   14   16 1   
    19   14   20 1   
    20   15   17 1   
    21   15   18 1   
    22   16   17 1   
    23   16   21 1   
    24   17   19 1   
    25   22   23 1   
    26   22   24 1   
    27   23   25 1   
    28   23   43 1   
    29   23   44 1   
    30   24   26 1   
    31   24   31 1   
    32   25   26 1   
    33   25   27 1   
    34   25   28 1   
    35   26   29 1   
    36   29   30 1   
    37   29   33 1   
    38   30   32 1   
    39   30   34 1   
    40   31   32 1   
    41   31   36 1   
    42   32   35 1   
    43   35   38 1   
    44   35   41 1   
    45   36   37 1   
    46   36   39 1   
    47   37   38 1   
    48   37   40 1   
    49   38   42 1   
    50   44   45 1   
    51   44   46 1   
    52   44   47 1   
@<TRIPOS>SUBSTRUCTURE
     1 LIG         1 TEMP              0 ****  ****    0 ROOT
