@<TRIPOS>MOLECULE
LIG
   54    60     1     0     0
SMALL
rc


@<TRIPOS>ATOM
      1 C          -1.6640   -0.1930   -0.0560 cp        1 LIG      0.028416
      2 C1         -1.2460   -1.5480   -0.0180 ca        1 LIG      0.050780
      3 C2          0.2090   -1.6000    0.2450 c2        1 LIG     -0.040307
      4 C3          0.6320   -0.1830    0.3850 ca        1 LIG      0.050780
      5 C4         -0.5070    0.6510    0.2400 cq        1 LIG      0.028416
      6 C5         -2.9770    0.1480   -0.3740 ca        1 LIG     -0.186853
      7 C6         -3.8870   -0.8670   -0.6750 ca        1 LIG     -0.145922
      8 C7         -3.4740   -2.2040   -0.6810 ca        1 LIG     -0.185583
      9 C8         -2.1580   -2.5500   -0.3670 ca        1 LIG     -0.129571
     10 H          -3.2880    1.1890   -0.4010 ha        1 LIG      0.145292
     11 H1         -4.9140   -0.6180   -0.9230 ha        1 LIG      0.141676
     12 H2         -4.1830   -2.9850   -0.9380 ha        1 LIG      0.143914
     13 H3         -1.8620   -3.5900   -0.4010 ha        1 LIG      0.131952
     14 C9         -0.4190    2.0300    0.4220 ca        1 LIG     -0.186853
     15 C10         1.8480    0.3900    0.7730 ca        1 LIG     -0.129571
     16 C11         0.8120    2.5910    0.7680 ca        1 LIG     -0.145922
     17 C12         1.9320    1.7720    0.9510 ca        1 LIG     -0.185583
     18 H4          2.7260   -0.2230    0.9370 ha        1 LIG      0.131952
     19 H5          2.8810    2.2150    1.2400 ha        1 LIG      0.143914
     20 H6         -1.2980    2.6590    0.3120 ha        1 LIG      0.145292
     21 H7          0.8970    3.6640    0.9110 ha        1 LIG      0.141676
     22 C13         0.9740   -2.7310    0.4160 c2        1 LIG     -0.004567
     23 C14         0.4530   -4.0730    0.9730 c3        1 LIG     -0.045201
     24 C15         2.4200   -2.9020    0.2050 ca        1 LIG     -0.035306
     25 C16         1.7360   -4.7100    1.6040 c3        1 LIG     -0.032534
     26 C17         2.8700   -4.0240    0.9010 ca        1 LIG      0.080599
     27 H8          1.7610   -5.7990    1.4870 hc        1 LIG      0.050823
     28 H9          1.7540   -4.5090    2.6820 hc        1 LIG      0.050823
     29 C18         4.2190   -4.4200    0.8960 ca        1 LIG     -0.235980
     30 C19         5.1250   -3.7070    0.1450 ca        1 LIG     -0.199623
     31 C20         3.3210   -2.2290   -0.6960 ca        1 LIG      0.026033
     32 C21         4.7020   -2.6310   -0.6830 ca        1 LIG      0.098994
     33 H10         4.5370   -5.2800    1.4790 ha        1 LIG      0.157717
     34 H11         6.1750   -3.9870    0.1360 ha        1 LIG      0.164152
     35 C22         5.6250   -1.9800   -1.5450 ca        1 LIG     -0.169810
     36 C23         2.9230   -1.2560   -1.6490 ca        1 LIG     -0.110820
     37 C24         3.8400   -0.6660   -2.4930 ca        1 LIG     -0.128182
     38 C25         5.2090   -1.0100   -2.4280 ca        1 LIG     -0.169726
     39 H12         1.8790   -0.9870   -1.7230 ha        1 LIG      0.098233
     40 H13         3.5040    0.0670   -3.2200 ha        1 LIG      0.140435
     41 H14         6.6680   -2.2820   -1.5080 ha        1 LIG      0.132111
     42 H15         5.9220   -0.5260   -3.0870 ha        1 LIG      0.146326
     43 H16         0.1480   -4.7160    0.1360 hc        1 LIG      0.072556
     44 C26        -0.6730   -4.0500    1.9950 ca        1 LIG     -0.034789
     45 C27        -1.6450   -5.0580    1.9820 ca        1 LIG     -0.093082
     46 C28        -0.7090   -3.1060    3.0310 ca        1 LIG     -0.093082
     47 C29        -2.6330   -5.1200    2.9670 ca        1 LIG     -0.175350
     48 C30        -1.6940   -3.1630    4.0150 ca        1 LIG     -0.175350
     49 H17         0.0330   -2.3140    3.0630 ha        1 LIG      0.118779
     50 C31        -2.6610   -4.1700    3.9870 ca        1 LIG     -0.114823
     51 H18        -1.7090   -2.4180    4.8040 ha        1 LIG      0.140749
     52 H19        -3.4300   -4.2120    4.7530 ha        1 LIG      0.132473
     53 H20        -1.6290   -5.8030    1.1890 ha        1 LIG      0.118779
     54 H21        -3.3790   -5.9090    2.9330 ha        1 LIG      0.140749
@<TRIPOS>BOND
     1    1    2 1   
     2    1    5 1   
     3    1    6 1   
     4    2    3 1   
     5    2    9 1   
     6    3    4 1   
     7    3   22 1   
     8    4    5 1   
     9    4   15 1   
    10    5   14 1   
    11    6    7 1   
    12    6   10 1   
    13    7    8 1   
    14    7   11 1   
    15    8    9 1   
    16    8   12 1   
    17    9   13 1   
    18   14   16 1   
    19   14   20 1   
    20   15   17 1   
    21   15   18 1   
    22   16   17 1   
    23   16   21 1   
    24   17   19 1   
    25   22   23 1   
    26   22   24 1   
    27   23   25 1   
    28   23   43 1   
    29   23   44 1   
    30   24   26 1   
    31   24   31 1   
    32   25   26 1   
    33   25   27 1   
    34   25   28 1   
    35   26   29 1   
    36   29   30 1   
    37   29   33 1   
    38   30   32 1   
    39   30   34 1   
    40   31   32 1   
    41   31   36 1   
    42   32   35 1   
    43   35   38 1   
    44   35   41 1   
    45   36   37 1   
    46   36   39 1   
    47   37   38 1   
    48   37   40 1   
    49   38   42 1   
    50   44   45 1   
    51   44   46 1   
    52   45   47 1   
    53   45   53 1   
    54   46   48 1   
    55   46   49 1   
    56   47   50 1   
    57   47   54 1   
    58   48   50 1   
    59   48   51 1   
    60   50   52 1   
@<TRIPOS>SUBSTRUCTURE
     1 LIG         1 TEMP              0 ****  ****    0 ROOT
