@<TRIPOS>MOLECULE
LIG
   53    58     1     0     0
SMALL
rc


@<TRIPOS>ATOM
      1 C          -1.8000   -0.4020   -0.0250 cp        1 LIG      0.029800
      2 C1         -1.3570   -1.7510   -0.0210 ca        1 LIG      0.058924
      3 C2          0.0950   -1.7840    0.2770 c2        1 LIG     -0.083940
      4 C3          0.4740   -0.3690    0.5090 ca        1 LIG      0.058924
      5 C4         -0.6750    0.4500    0.3510 cq        1 LIG      0.029800
      6 C5         -3.1090   -0.0720   -0.3720 ca        1 LIG     -0.195712
      7 C6         -3.9940   -1.0890   -0.7320 ca        1 LIG     -0.133797
      8 C7         -3.5620   -2.4190   -0.7610 ca        1 LIG     -0.195094
      9 C8         -2.2510   -2.7550   -0.4190 ca        1 LIG     -0.139714
     10 H          -3.4350    0.9650   -0.3730 ha        1 LIG      0.148316
     11 H1         -5.0180   -0.8460   -1.0030 ha        1 LIG      0.137503
     12 H2         -4.2520   -3.2030   -1.0580 ha        1 LIG      0.145993
     13 H3         -1.9430   -3.7930   -0.4710 ha        1 LIG      0.145967
     14 C9         -0.6240    1.8200    0.6050 ca        1 LIG     -0.195712
     15 C10         1.6550    0.2050    0.9920 ca        1 LIG     -0.139714
     16 C11         0.5760    2.3850    1.0410 ca        1 LIG     -0.133797
     17 C12         1.7010    1.5780    1.2440 ca        1 LIG     -0.195094
     18 H4          2.5350   -0.4000    1.1750 ha        1 LIG      0.145967
     19 H5          2.6230    2.0210    1.6080 ha        1 LIG      0.145993
     20 H6         -1.5100    2.4380    0.4850 ha        1 LIG      0.148316
     21 H7          0.6310    3.4510    1.2420 ha        1 LIG      0.137503
     22 C13         0.8880   -2.9090    0.3800 c2        1 LIG     -0.081819
     23 C14         0.3680   -4.2700    0.8920 c3        1 LIG     -0.010355
     24 C15         2.3310   -3.0430    0.1470 ca        1 LIG      0.013204
     25 C16         1.6520   -5.1010    1.1790 c3        1 LIG      0.024548
     26 C17         2.7810   -4.2610    0.6630 ca        1 LIG      0.031914
     27 H8          1.6390   -6.0780    0.6820 hc        1 LIG      0.027382
     28 H9          1.7640   -5.3100    2.2500 hc        1 LIG      0.027382
     29 C18         4.1380   -4.6330    0.6330 ca        1 LIG     -0.236595
     30 C19         5.0520   -3.8010    0.0300 ca        1 LIG     -0.158830
     31 C20         3.2440   -2.2440   -0.6370 ca        1 LIG      0.042542
     32 C21         4.6300   -2.6230   -0.6460 ca        1 LIG      0.058862
     33 H10         4.4540   -5.5700    1.0850 ha        1 LIG      0.150001
     34 H11         6.1080   -4.0600    0.0130 ha        1 LIG      0.156369
     35 C22         5.5630   -1.8470   -1.3830 ca        1 LIG     -0.170494
     36 C23         2.8530   -1.1660   -1.4710 ca        1 LIG     -0.129250
     37 C24         3.7790   -0.4520   -2.2030 ca        1 LIG     -0.122769
     38 C25         5.1520   -0.7730   -2.1390 ca        1 LIG     -0.167043
     39 H12         1.8050   -0.9100   -1.5460 ha        1 LIG      0.123279
     40 H13         3.4450    0.3630   -2.8380 ha        1 LIG      0.138038
     41 H14         6.6110   -2.1350   -1.3570 ha        1 LIG      0.136530
     42 H15         5.8740   -0.1920   -2.7060 ha        1 LIG      0.145758
     43 H16        -0.1900   -4.7760    0.0930 hc        1 LIG      0.043272
     44 C26        -0.5720   -4.1780    2.1320 c3        1 LIG      0.153058
     45 C27        -1.1340   -5.5630    2.4870 c3        1 LIG     -0.169029
     46 H17        -1.6660   -6.0110    1.6390 hc        1 LIG      0.037782
     47 H18        -1.8380   -5.4920    3.3220 hc        1 LIG      0.037782
     48 H19        -0.3410   -6.2580    2.7860 hc        1 LIG      0.037782
     49 C28         0.0880   -3.5200    3.3550 c3        1 LIG     -0.169029
     50 H20         0.9140   -4.1200    3.7530 hc        1 LIG      0.037782
     51 H21        -0.6460   -3.4110    4.1590 hc        1 LIG      0.037782
     52 H22         0.4740   -2.5250    3.1180 hc        1 LIG      0.037782
     53 H23        -1.4180   -3.5460    1.8510 hc        1 LIG     -0.004053
@<TRIPOS>BOND
     1    1    2 1   
     2    1    5 1   
     3    1    6 1   
     4    2    3 1   
     5    2    9 1   
     6    3    4 1   
     7    3   22 1   
     8    4    5 1   
     9    4   15 1   
    10    5   14 1   
    11    6    7 1   
    12    6   10 1   
    13    7    8 1   
    14    7   11 1   
    15    8    9 1   
    16    8   12 1   
    17    9   13 1   
    18   14   16 1   
    19   14   20 1   
    20   15   17 1   
    21   15   18 1   
    22   16   17 1   
    23   16   21 1   
    24   17   19 1   
    25   22   23 1   
    26   22   24 1   
    27   23   25 1   
    28   23   43 1   
    29   23   44 1   
    30   24   26 1   
    31   24   31 1   
    32   25   26 1   
    33   25   27 1   
    34   25   28 1   
    35   26   29 1   
    36   29   30 1   
    37   29   33 1   
    38   30   32 1   
    39   30   34 1   
    40   31   32 1   
    41   31   36 1   
    42   32   35 1   
    43   35   38 1   
    44   35   41 1   
    45   36   37 1   
    46   36   39 1   
    47   37   38 1   
    48   37   40 1   
    49   38   42 1   
    50   44   45 1   
    51   44   49 1   
    52   44   53 1   
    53   45   46 1   
    54   45   47 1   
    55   45   48 1   
    56   49   50 1   
    57   49   51 1   
    58   49   52 1   
@<TRIPOS>SUBSTRUCTURE
     1 LIG         1 TEMP              0 ****  ****    0 ROOT
