@<TRIPOS>MOLECULE
LIG
   56    61     1     0     0
SMALL
rc


@<TRIPOS>ATOM
      1 C          -1.9190   -0.3880   -0.2730 cp        1 LIG      0.043438
      2 C1         -1.4740   -1.7360   -0.2520 ca        1 LIG      0.037293
      3 C2         -0.0540   -1.7710    0.1710 c2        1 LIG     -0.119115
      4 C3          0.3010   -0.3610    0.4500 ca        1 LIG      0.037293
      5 C4         -0.8330    0.4600    0.2130 cq        1 LIG      0.043438
      6 C5         -3.1950   -0.0540   -0.7260 ca        1 LIG     -0.196348
      7 C6         -4.0420   -1.0660   -1.1780 ca        1 LIG     -0.139789
      8 C7         -3.6010   -2.3950   -1.1980 ca        1 LIG     -0.193512
      9 C8         -2.3230   -2.7320   -0.7520 ca        1 LIG     -0.123274
     10 H          -3.5220    0.9820   -0.7370 ha        1 LIG      0.146774
     11 H1         -5.0400   -0.8210   -1.5300 ha        1 LIG      0.140005
     12 H2         -4.2580   -3.1750   -1.5710 ha        1 LIG      0.142963
     13 H3         -2.0030   -3.7660   -0.8090 ha        1 LIG      0.145926
     14 C9         -0.8100    1.8230    0.5060 ca        1 LIG     -0.196348
     15 C10         1.4310    0.2020    1.0570 ca        1 LIG     -0.123274
     16 C11         0.3420    2.3780    1.0630 ca        1 LIG     -0.139789
     17 C12         1.4480    1.5670    1.3470 ca        1 LIG     -0.193512
     18 H4          2.2920   -0.4080    1.3050 ha        1 LIG      0.145926
     19 H5          2.3310    2.0030    1.8060 ha        1 LIG      0.142963
     20 H6         -1.6860    2.4410    0.3260 ha        1 LIG      0.146774
     21 H7          0.3740    3.4380    1.2980 ha        1 LIG      0.140005
     22 C13         0.7260   -2.9010    0.3590 c2        1 LIG     -0.057760
     23 C14         0.1730   -4.2150    0.9610 c3        1 LIG     -0.000069
     24 C15         2.1650   -3.0770    0.1390 ca        1 LIG      0.001062
     25 C16         1.3360   -5.2240    0.8040 c3        1 LIG     -0.074885
     26 C17         2.5360   -4.3760    0.5040 ca        1 LIG      0.064762
     27 H8          1.1630   -5.9010   -0.0430 hc        1 LIG      0.044794
     28 H9          1.4810   -5.8660    1.6770 hc        1 LIG      0.044794
     29 C18         3.8710   -4.8160    0.4830 ca        1 LIG     -0.222927
     30 C19         4.8520   -3.9660    0.0290 ca        1 LIG     -0.187936
     31 C20         3.1470   -2.2560   -0.5370 ca        1 LIG      0.071478
     32 C21         4.5150   -2.7020   -0.5290 ca        1 LIG      0.072512
     33 H10         4.1160   -5.8190    0.8220 ha        1 LIG      0.150841
     34 H11         5.8950   -4.2730    0.0300 ha        1 LIG      0.162264
     35 C22         5.5160   -1.9080   -1.1490 ca        1 LIG     -0.183559
     36 C23         2.8470   -1.0960   -1.2960 ca        1 LIG     -0.172295
     37 C24         3.8370   -0.3690   -1.9250 ca        1 LIG     -0.114276
     38 C25         5.1900   -0.7550   -1.8260 ca        1 LIG     -0.165397
     39 H12         1.8170   -0.7900   -1.4070 ha        1 LIG      0.146341
     40 H13         3.5660    0.5060   -2.5090 ha        1 LIG      0.137210
     41 H14         6.5460   -2.2500   -1.1060 ha        1 LIG      0.141321
     42 H15         5.9630   -0.1640   -2.3090 ha        1 LIG      0.145912
     43 H16        -0.7070   -4.5690    0.4200 hc        1 LIG      0.035036
     44 C26        -0.2760   -4.0890    2.4840 c3        1 LIG      0.304132
     45 C27        -0.8360   -5.4600    2.9280 c3        1 LIG     -0.189147
     46 H17        -1.6890   -5.7540    2.3060 hc        1 LIG      0.037361
     47 H18        -1.1870   -5.4040    3.9640 hc        1 LIG      0.037361
     48 H19        -0.0940   -6.2620    2.8800 hc        1 LIG      0.037361
     49 C28         0.9050   -3.6910    3.3900 c3        1 LIG     -0.189147
     50 C29        -1.4040   -3.0610    2.6920 c3        1 LIG     -0.189147
     51 H20         1.7330   -4.4070    3.3480 hc        1 LIG      0.037361
     52 H21         0.5720   -3.6400    4.4330 hc        1 LIG      0.037361
     53 H22         1.2980   -2.7070    3.1200 hc        1 LIG      0.037361
     54 H23        -2.2700   -3.2700    2.0570 hc        1 LIG      0.037361
     55 H24        -1.0800   -2.0380    2.4940 hc        1 LIG      0.037361
     56 H25        -1.7380   -3.1020    3.7350 hc        1 LIG      0.037361
@<TRIPOS>BOND
     1    1    2 1   
     2    1    5 1   
     3    1    6 1   
     4    2    3 1   
     5    2    9 1   
     6    3    4 1   
     7    3   22 1   
     8    4    5 1   
     9    4   15 1   
    10    5   14 1   
    11    6    7 1   
    12    6   10 1   
    13    7    8 1   
    14    7   11 1   
    15    8    9 1   
    16    8   12 1   
    17    9   13 1   
    18   14   16 1   
    19   14   20 1   
    20   15   17 1   
    21   15   18 1   
    22   16   17 1   
    23   16   21 1   
    24   17   19 1   
    25   22   23 1   
    26   22   24 1   
    27   23   25 1   
    28   23   43 1   
    29   23   44 1   
    30   24   26 1   
    31   24   31 1   
    32   25   26 1   
    33   25   27 1   
    34   25   28 1   
    35   26   29 1   
    36   29   30 1   
    37   29   33 1   
    38   30   32 1   
    39   30   34 1   
    40   31   32 1   
    41   31   36 1   
    42   32   35 1   
    43   35   38 1   
    44   35   41 1   
    45   36   37 1   
    46   36   39 1   
    47   37   38 1   
    48   37   40 1   
    49   38   42 1   
    50   44   45 1   
    51   44   49 1   
    52   44   50 1   
    53   45   46 1   
    54   45   47 1   
    55   45   48 1   
    56   49   51 1   
    57   49   52 1   
    58   49   53 1   
    59   50   54 1   
    60   50   55 1   
    61   50   56 1   
@<TRIPOS>SUBSTRUCTURE
     1 LIG         1 TEMP              0 ****  ****    0 ROOT
